tests/data/power_flow/dummy-test-link/input.json
{
  "version": "1.0",
  "type": "input",
  "is_batch": false,
  "attributes": {},
  "data": {
    "node": [
      {
        "id": 1,
        "u_rated": 10e3
      },
      {
        "id": 2,
        "u_rated": 10e3
      }
    ],
    "link": [
      {
        "id": 3,
        "from_node": 1,
        "to_node": 2,
        "from_status": 1,
        "to_status": 1
      }
    ],
    "source": [
      {
        "id": 4,
        "node": 1,
        "status": 1,
        "u_ref": 1.05,
        "sk": 1e12
      }
    ],
    "asym_load": [
      {
        "id": 5,
        "node": 2,
        "status": 1,
        "type": 1,
        "p_specified": [2.0e5, 1.0e5, 3.0e5],
        "q_specified": [1.0e5, 1.0e5, 1.0e5]
      }
    ]
  }
}