tests/data/power_flow/dummy-test-link/asym_output_batch.json
{
  "version": "1.0",
  "type": "sym_output",
  "is_batch": true,
  "attributes": {},
  "data": [
    {
      "node": [
        {"id": 1, "energized": 1, "u_pu": 1.050002653570703, "u": 10500.026535707029, "u_angle": -1.4793528305044663e-06, "p": 1345653.3392703342, "q": -2934719.4520267113},
        {"id": 2, "energized": 1, "u_pu": 1.0485445661489112, "u": 10485.445661489111, "u_angle": -0.0032736161797103387, "p": 0.017979197783649453, "q": -0.0054018350275461787}
      ],
      "link": [
        {"id": 3, "energized": 1, "loading": 0, "p_from": 1326242.8673741999, "q_from": 590587.18028971716, "i_from": 79.938915663603737, "s_from": 1451796.5975933056, "p_to": -1326242.8577888545, "q_to": -590587.18987506256, "i_to": 79.938915663603737, "s_to": 1451796.5927362107}
      ],
      "source": [
        {"id": 4, "energized": 1, "p": 1345653.339270334, "q": -2934719.4520267108, "i": 177.52228086868132, "s": 3228523.0635064943, "pf": 0.41680152589922087}
      ],
      "asym_load": [
        {"id": 5, "energized": 1, "p": 659667.41990631109, "q": 329833.70995315554, "i": 40.60995628864648, "s": 737530.59672620485, "pf": 0.89442719099991574}
      ]
    },
    {
      "node": [
        {"id": 1, "energized": 1, "u_pu": 1.050002653570703, "u": 10500.026535707029, "u_angle": -1.4793528305044663e-06, "p": 1345653.3392703342, "q": -2934719.4520267113},
        {"id": 2, "energized": 0, "u_pu": 0, "u": 0, "u_angle": 0}
      ],
      "link": [
        {"id": 3, "energized": 1, "loading": 0, "p_from": [0, 0, 0], "q_from": [0, 0, 0], "p_to": [0, 0, 0], "q_to": [0, 0, 0]}
      ],
      "source": [
        {"id": 4, "energized": 1, "p": [0, 0, 0], "q": [0, 0, 0]}
      ],
      "asym_load": [
        {"id": 5, "energized": 1, "p": [0, 0, 0], "q": [0, 0, 0]}
      ]
    },
    {
      "node": [
        {"id": 1, "energized": 1, "u_pu": 1.050002653570703, "u": 10500.026535707029, "u_angle": -1.4793528305044663e-06, "p": 1345653.3392703342, "q": -2934719.4520267113},
        {"id": 2, "energized": 0, "u_pu": 0, "u": 0, "u_angle": 0}
      ],
      "link": [
        {"id": 3, "energized": 1, "loading": 0, "p_from": [0, 0, 0], "q_from": [0, 0, 0], "p_to": [0, 0, 0], "q_to": [0, 0, 0]}
      ],
      "source": [
        {"id": 4, "energized": 1, "p": [0, 0, 0], "q": [0, 0, 0]}
      ],
      "asym_load": [
        {"id": 5, "energized": 1, "p": [0, 0, 0], "q": [0, 0, 0]}
      ]
    },
    {
      "node": [
        {"id": 1, "energized": 1, "u_pu": 1.050002653570703, "u": 10500.026535707029, "u_angle": -1.4793528305044663e-06, "p": 1345653.3392703342, "q": -2934719.4520267113},
        {"id": 2, "energized": 0, "u_pu": [0, 0, 0], "u": [0, 0, 0], "u_angle": [0, 0, 0]}
      ],
      "link": [
        {"id": 3, "energized": 1, "loading": 0, "p_from": [0, 0, 0], "q_from": [0, 0, 0], "p_to": [0, 0, 0], "q_to": [0, 0, 0]}
      ],
      "source": [
        {"id": 4, "energized": 1, "p": [0, 0, 0], "q": [0, 0, 0]}
      ],
      "asym_load": [
        {"id": 5, "energized": 1, "p": [0, 0, 0], "q": [0, 0, 0]}
      ]
    }
  ]
}